test_network/Sim_files_190128_OK_V0/RunDss/source2txline_ind.txt
New Line.mv1 Bus1=Source Bus2=1 phases=3 Linecode=101 Length=5 Units=m
New Line.mv2 Bus1=Source Bus2=2 phases=3 Linecode=101 Length=5 Units=m
New Line.mv3 Bus1=Source Bus2=3 phases=3 Linecode=101 Length=5 Units=m
New Line.mv4 Bus1=Source Bus2=4 phases=3 Linecode=101 Length=5 Units=m
New Line.mv5 Bus1=Source Bus2=5 phases=3 Linecode=101 Length=5 Units=m
New Line.mv6 Bus1=Source Bus2=6 phases=3 Linecode=101 Length=5 Units=m
New Line.mv7 Bus1=Source Bus2=7 phases=3 Linecode=101 Length=5 Units=m
New Line.mv8 Bus1=Source Bus2=8 phases=3 Linecode=101 Length=5 Units=m
New Line.mv9 Bus1=Source Bus2=9 phases=3 Linecode=101 Length=5 Units=m
New Line.mv10 Bus1=Source Bus2=10 phases=3 Linecode=101 Length=5 Units=m
New Line.mv11 Bus1=Source Bus2=11 phases=3 Linecode=101 Length=5 Units=m
New Line.mv12 Bus1=Source Bus2=12 phases=3 Linecode=101 Length=5 Units=m
New Line.mv13 Bus1=Source Bus2=13 phases=3 Linecode=101 Length=5 Units=m
New Line.mv14 Bus1=Source Bus2=14 phases=3 Linecode=101 Length=5 Units=m
New Line.mv15 Bus1=Source Bus2=15 phases=3 Linecode=101 Length=5 Units=m
New Line.mv16 Bus1=Source Bus2=16 phases=3 Linecode=101 Length=5 Units=m
New Line.mv17 Bus1=Source Bus2=17 phases=3 Linecode=101 Length=5 Units=m
New Line.mv18 Bus1=Source Bus2=18 phases=3 Linecode=101 Length=5 Units=m
New Line.mv19 Bus1=Source Bus2=19 phases=3 Linecode=101 Length=5 Units=m
New Line.mv20 Bus1=Source Bus2=20 phases=3 Linecode=101 Length=5 Units=m
New Line.mv21 Bus1=Source Bus2=21 phases=3 Linecode=101 Length=5 Units=m
New Line.mv22 Bus1=Source Bus2=22 phases=3 Linecode=101 Length=5 Units=m
New Line.mv23 Bus1=Source Bus2=23 phases=3 Linecode=101 Length=5 Units=m
New Line.mv24 Bus1=Source Bus2=24 phases=3 Linecode=101 Length=5 Units=m
New Line.mv25 Bus1=Source Bus2=25 phases=3 Linecode=101 Length=5 Units=m
New Line.mv26 Bus1=Source Bus2=26 phases=3 Linecode=101 Length=5 Units=m
New Line.mv27 Bus1=Source Bus2=27 phases=3 Linecode=101 Length=5 Units=m
New Line.mv28 Bus1=Source Bus2=28 phases=3 Linecode=101 Length=5 Units=m
New Line.mv29 Bus1=Source Bus2=29 phases=3 Linecode=101 Length=5 Units=m
New Line.mv30 Bus1=Source Bus2=30 phases=3 Linecode=101 Length=5 Units=m
